GMLCDjangoProject/MapApp/static/MapApp/data/transmission/scenario3.csv
,node,voltage_magnitude,voltage_angle,active_power,reactive_power,month,hour_of_day,day_of_month,daytype,timezone
0,WECCbus157,1.0154698,-0.80895408,3.0261449000000002,0.21853686,january,0,1,weekday,
6,WECCbus157,1.0308653,-0.78738026,2.7897634,-0.26463509,january,1,1,weekday,
12,WECCbus157,1.0311475,-0.78296692,2.755662,-0.26539522,january,2,1,weekday,
18,WECCbus157,1.0312244000000002,-0.78173551,2.7464551,-0.26559156,january,3,1,weekday,
24,WECCbus157,1.0312415000000001,-0.78142658,2.7445626,-0.26560964,january,4,1,weekday,
30,WECCbus157,1.0310386999999999,-0.78463525,2.7691812999999996,-0.26509302,january,5,1,weekday,
36,WECCbus157,1.0304290999999999,-0.79399843,2.8419338,-0.2632828,january,6,1,weekday,
42,WECCbus157,1.0293671999999998,-0.80940468,2.964825,-0.25931481,january,7,1,weekday,
48,WECCbus157,1.0290834999999998,-0.81286009,2.9989971,-0.25773675,january,8,1,weekday,
54,WECCbus157,1.0306911,-0.78821645,2.8196466,-0.262886,january,9,1,weekday,
60,WECCbus157,1.031893,-0.76944457,2.6701865000000002,-0.2660239,january,10,1,weekday,
66,WECCbus157,1.032712,-0.75692114,2.5562563,-0.2679688,january,11,1,weekday,
72,WECCbus157,1.0328431999999999,-0.75472886,2.5379659,-0.26812021,january,12,1,weekday,
78,WECCbus157,1.0328800999999999,-0.75417852,2.5324242000000003,-0.26820342,january,13,1,weekday,
84,WECCbus157,1.0328674999999998,-0.75443204,2.5339944,-0.26821968,january,14,1,weekday,
90,WECCbus157,1.032504,-0.76014765,2.5858731,-0.26753657,january,15,1,weekday,
96,WECCbus157,1.0316395,-0.77339059,2.7032336,-0.26540459,january,16,1,weekday,
102,WECCbus157,1.0290934999999999,-0.81378578,2.9921233,-0.25844292,january,17,1,weekday,
108,WECCbus157,1.0268382,-0.83666222,3.2620299,-0.24183694,january,18,1,weekday,
114,WECCbus157,1.0258268,-0.85030838,3.3570759,-0.23654033,january,19,1,weekday,
120,WECCbus157,1.0256679,-0.85853964,3.3452773999999996,-0.24034970000000003,january,20,1,weekday,
126,WECCbus157,1.0260502,-0.8538370999999999,3.3079909,-0.24264475,january,21,1,weekday,
132,WECCbus157,1.0271021999999999,-0.84051253,3.2039495,-0.24872485,january,22,1,weekday,
138,WECCbus157,1.0286249,-0.82011563,3.0449734,-0.25631755,january,23,1,weekday,
144,WECCbus157,1.0298863999999999,-0.80216496,2.9047908,-0.26151407,january,0,3,weekend,
150,WECCbus157,1.0306799999999998,-0.79026243,2.8117825,-0.26411072,january,1,3,weekend,
156,WECCbus157,1.0309815999999998,-0.78557684,2.7755513,-0.26494118,january,2,3,weekend,
162,WECCbus157,1.0310738000000002,-0.78412247,2.764442,-0.26517838,january,3,3,weekend,
168,WECCbus157,1.0310924000000001,-0.78383286,2.7621569,-0.26522899,january,4,3,weekend,
174,WECCbus157,1.0308712,-0.7872566,2.7889793,-0.26460317,january,5,3,weekend,
180,WECCbus157,1.0302235999999998,-0.79707532,2.8657149,-0.26256417,january,6,3,weekend,
186,WECCbus157,1.0291136,-0.81304139,2.9926212000000003,-0.25826441,january,7,3,weekend,
192,WECCbus157,1.0288591999999999,-0.81601087,3.0234131,-0.25674769,january,8,3,weekend,
198,WECCbus157,1.030765,-0.78719751,2.809798,-0.26312968,january,9,3,weekend,
204,WECCbus157,1.0320109,-0.76763299,2.6539292999999997,-0.26626916,january,10,3,weekend,
210,WECCbus157,1.0327947,-0.7554701,2.5444849,-0.26795738,january,11,3,weekend,
216,WECCbus157,1.0328694999999999,-0.75409102,2.5347147,-0.26796431,january,12,3,weekend,
222,WECCbus157,1.0329195,-0.7532978,2.5274517999999997,-0.26804922,january,13,3,weekend,
228,WECCbus157,1.0329291999999999,-0.75318268,2.5257631000000003,-0.26808138,january,14,3,weekend,
234,WECCbus157,1.0327913,-0.75570448,2.5438871,-0.26804738,january,15,3,weekend,
240,WECCbus157,1.0317601,-0.77131017,2.6881616000000004,-0.26551819,january,16,3,weekend,
246,WECCbus157,1.0292856,-0.80584086,2.9953161,-0.2556064,january,17,3,weekend,
252,WECCbus157,1.0264491,-0.84263035,3.2953129999999997,-0.2402311,january,18,3,weekend,
258,WECCbus157,1.025161,-0.86270123,3.4008498999999994,-0.23546266,january,19,3,weekend,
264,WECCbus157,1.0251458,-0.8648662,3.3943452000000005,-0.23698487,january,20,3,weekend,
270,WECCbus157,1.025543,-0.8600565999999998,3.3565242,-0.23947081,january,21,3,weekend,
276,WECCbus157,1.0266737,-0.84599006,3.2466916,-0.24627712,january,22,3,weekend,
282,WECCbus157,1.0282974,-0.82466442,3.079744,-0.25482985,january,23,3,weekend,
0,WECCbus57,0.99343964,-1.748537,2.6546991,0.53686136,january,0,1,weekday,
6,WECCbus57,1.0127398,-1.7205990000000002,2.1725338,-0.18037409,january,1,1,weekday,
12,WECCbus57,1.0129809,-1.7164355,2.136918,-0.18200227,january,2,1,weekday,
18,WECCbus57,1.0130539,-1.715195,2.1250854,-0.18254812,january,3,1,weekday,
24,WECCbus57,1.0130809,-1.7147791000000001,2.1209919,-0.18274122,january,4,1,weekday,
30,WECCbus57,1.0129025999999999,-1.7178474,2.1444209,-0.18171529,january,5,1,weekday,
36,WECCbus57,1.0123933,-1.7265793,2.2180871,-0.17816743,january,6,1,weekday,
42,WECCbus57,1.0115969,-1.7401426,2.327937,-0.17230991,january,7,1,weekday,
48,WECCbus57,1.0115571,-1.7415101999999998,2.3226464,-0.17279648,january,8,1,weekday,
54,WECCbus57,1.0131495000000001,-1.7154075,1.9864477999999999,-0.19006722,january,9,1,weekday,
60,WECCbus57,1.0140444,-1.698826,1.8494121,-0.19418038,january,10,1,weekday,
66,WECCbus57,1.0143582,-1.6913561999999998,1.8375591,-0.19369449,january,11,1,weekday,
72,WECCbus57,1.0144435,-1.6896354999999998,1.8305391,-0.19375619,january,12,1,weekday,
78,WECCbus57,1.0144463,-1.6894401999999997,1.8300409,-0.19374899,january,13,1,weekday,
84,WECCbus57,1.0144273000000001,-1.6897779999999998,1.8357846999999998,-0.19356334,january,14,1,weekday,
90,WECCbus57,1.014285,-1.6932194,1.8464433999999998,-0.19357063,january,15,1,weekday,
96,WECCbus57,1.0138943999999999,-1.7019078999999997,1.8805205000000003,-0.19327143,january,16,1,weekday,
102,WECCbus57,1.0111925,-1.745945,2.391571,-0.16813718,january,17,1,weekday,
108,WECCbus57,1.0117789000000001,-1.7438311000000002,1.9730198,-0.19384400000000002,january,18,1,weekday,
114,WECCbus57,1.0107694999999999,-1.7592955000000001,2.1566976,-0.18526900000000002,january,19,1,weekday,
120,WECCbus57,1.0085437,-1.7863251,2.7350321,-0.14213639,january,20,1,weekday,
126,WECCbus57,1.0088304,-1.7821331999999999,2.7003022999999997,-0.14510328,january,21,1,weekday,
132,WECCbus57,1.0096691999999998,-1.7698281999999999,2.5938103999999997,-0.15393210000000002,january,22,1,weekday,
138,WECCbus57,1.0109017,-1.7509211999999998,2.4316471,-0.16565267,january,23,1,weekday,
144,WECCbus57,1.0119264000000001,-1.7343499,2.2903971000000003,-0.17431678,january,0,3,weekend,
150,WECCbus57,1.0125746,-1.7233796000000001,2.1939802999999998,-0.17935315,january,1,3,weekend,
156,WECCbus57,1.0128319,-1.7189653999999999,2.154809,-0.18122063,january,2,3,weekend,
162,WECCbus57,1.0129137,-1.7175582999999999,2.1393823,-0.18197697,january,3,3,weekend,
168,WECCbus57,1.0129285,-1.7172968999999998,2.1370638,-0.18208188,january,4,3,weekend,
174,WECCbus57,1.0127484,-1.7204331999999998,2.1616459,-0.18097119,january,5,3,weekend,
180,WECCbus57,1.0122188,-1.7294793000000002,2.2379366000000003,-0.17718189,january,6,3,weekend,
186,WECCbus57,1.0113748,-1.7436474999999998,2.3509076,-0.17098885,january,7,3,weekend,
192,WECCbus57,1.0113712,-1.74446,2.3395497000000005,-0.17188175,january,8,3,weekend,
198,WECCbus57,1.0131567,-1.7149397000000002,1.9736699,-0.19052260000000001,january,9,3,weekend,
204,WECCbus57,1.0140853,-1.6976803,1.8292167000000001,-0.1947484,january,10,3,weekend,
210,WECCbus57,1.0144137,-1.6901271,1.817396,-0.19423509,january,11,3,weekend,
216,WECCbus57,1.0145005,-1.6886118000000003,1.8101906000000003,-0.19432184,january,12,3,weekend,
222,WECCbus57,1.0145182,-1.6881491000000002,1.8075892,-0.19434224,january,13,3,weekend,
228,WECCbus57,1.0145097,-1.6882439999999999,1.8125718999999998,-0.19415219,january,14,3,weekend,
234,WECCbus57,1.0143546,-1.6909499,1.8233273,-0.19406886,january,15,3,weekend,
240,WECCbus57,1.0140108,-1.6996897000000002,1.8443231,-0.19436634,january,16,3,weekend,
246,WECCbus57,1.0129473,-1.7220388,1.8926256999999997,-0.19502593,january,17,3,weekend,
252,WECCbus57,1.0111702,-1.7526959999999998,2.1007968,-0.18778601,january,18,3,weekend,
258,WECCbus57,1.0088357,-1.7842357,2.6073319,-0.15391063,january,19,3,weekend,
264,WECCbus57,1.0081198,-1.7922551,2.7887988,-0.13713363,january,20,3,weekend,
270,WECCbus57,1.0084259,-1.7878858,2.7500426,-0.14062423,january,21,3,weekend,
276,WECCbus57,1.009325,-1.7748962,2.637121,-0.15038688,january,22,3,weekend,
282,WECCbus57,1.0106163000000001,-1.7553126000000001,2.4711092,-0.16293665,january,23,3,weekend,
0,WECCbus157,1.0154698,-0.80895408,3.0261449000000002,0.21853686,february,0,5,weekday,
6,WECCbus157,1.0309287,-0.7863627,2.7823056,-0.26478901,february,1,5,weekday,
12,WECCbus157,1.0312158,-0.78184281,2.7473907000000004,-0.26552208,february,2,5,weekday,
18,WECCbus157,1.0313107,-0.7803565,2.7356507999999997,-0.26576645,february,3,5,weekday,
24,WECCbus157,1.0313272,-0.78003388,2.7339236000000002,-0.26576561,february,4,5,weekday,
30,WECCbus157,1.031125,-0.78322483,2.7586974,-0.26525355,february,5,5,weekday,
36,WECCbus157,1.030481,-0.79307966,2.8364307,-0.26335419,february,6,5,weekday,
42,WECCbus157,1.0295415,-0.80650638,2.9472266,-0.25974196,february,7,5,weekday,
48,WECCbus157,1.029642,-0.80490968,2.9365806,-0.26003742,february,8,5,weekday,
54,WECCbus157,1.0308700000000002,-0.78546337,2.798288,-0.26341859999999995,february,9,5,weekday,
60,WECCbus157,1.0320873,-0.76642724,2.6442539000000003,-0.26648817,february,10,5,weekday,
66,WECCbus157,1.0324849,-0.76037745,2.5890687999999997,-0.26747091,february,11,5,weekday,
72,WECCbus157,1.0327361,-0.75652572,2.5529688,-0.26801233,february,12,5,weekday,
78,WECCbus157,1.0327035,-0.75702537,2.5577243,-0.2679428,february,13,5,weekday,
84,WECCbus157,1.0327278,-0.75669007,2.5539301,-0.26801108,february,14,5,weekday,
90,WECCbus157,1.0324219000000001,-0.76145584,2.5972236,-0.26738308,february,15,5,weekday,
96,WECCbus157,1.0316114,-0.77378405,2.7070376,-0.26530304,february,16,5,weekday,
102,WECCbus157,1.0297998,-0.80224978,2.9194876,-0.2602766,february,17,5,weekday,
108,WECCbus157,1.0274790999999999,-0.82885639,3.1951231,-0.24575718,february,18,5,weekday,
114,WECCbus157,1.0261405000000001,-0.84753619,3.3217578999999997,-0.2392614,february,19,5,weekday,
120,WECCbus157,1.0257473,-0.85750904,3.3378137999999997,-0.24078199,february,20,5,weekday,
126,WECCbus157,1.0259774,-0.85465941,3.3153892,-0.2421386,february,21,5,weekday,
132,WECCbus157,1.0271006999999999,-0.84051859,3.2041333,-0.24870354,february,22,5,weekday,
138,WECCbus157,1.0286513000000002,-0.81967843,3.0424255000000002,-0.25638048,february,23,5,weekday,
144,WECCbus157,1.0299154000000001,-0.80169767,2.9016398,-0.26158786,february,0,6,weekend,
150,WECCbus157,1.0307327,-0.78942725,2.8056084,-0.26424801,february,1,6,weekend,
156,WECCbus157,1.0310449000000002,-0.78461657,2.7677535,-0.26513049,february,2,6,weekend,
162,WECCbus157,1.0311375,-0.78308845,2.7568576,-0.26532251,february,3,6,weekend,
168,WECCbus157,1.0311594000000002,-0.78274425,2.7541857000000003,-0.26537876,february,4,6,weekend,
174,WECCbus157,1.0309366,-0.78618059,2.7814325,-0.26474604,february,5,6,weekend,
180,WECCbus157,1.0302579,-0.79643756,2.8623209,-0.26259431,february,6,6,weekend,
186,WECCbus157,1.0292386999999998,-0.81074869,2.9812605,-0.25842863,february,7,6,weekend,
192,WECCbus157,1.0294494,-0.80781023,2.9573223,-0.25932079,february,8,6,weekend,
198,WECCbus157,1.0309069,-0.78498037,2.7929351000000002,-0.26352937,february,9,6,weekend,
204,WECCbus157,1.0321505,-0.76541106,2.6354111000000002,-0.26656012,february,10,6,weekend,
210,WECCbus157,1.0325363,-0.75945234,2.5818773,-0.26743502,february,11,6,weekend,
216,WECCbus157,1.0327629,-0.75591726,2.5495071,-0.26788165,february,12,6,weekend,
222,WECCbus157,1.0327145,-0.75664906,2.5565742,-0.26777143,february,13,6,weekend,
228,WECCbus157,1.0327877,-0.75553136,2.5458399,-0.26792339,february,14,6,weekend,
234,WECCbus157,1.0324702,-0.76044308,2.5912185,-0.26725497,february,15,6,weekend,
240,WECCbus157,1.0316438,-0.7729686,2.7039557,-0.26512963,february,16,6,weekend,
246,WECCbus157,1.0299071,-0.79753497,2.9220745,-0.25851655,february,17,6,weekend,
252,WECCbus157,1.0270618,-0.83492279,3.2339157000000003,-0.24382976,february,18,6,weekend,
258,WECCbus157,1.0254549000000002,-0.85946086,3.3714077000000007,-0.23753412,february,19,6,weekend,
264,WECCbus157,1.025167,-0.86470725,3.3918225,-0.23718282,february,20,6,weekend,
270,WECCbus157,1.0254218000000002,-0.86154105,3.3679474000000003,-0.23870959,february,21,6,weekend,
276,WECCbus157,1.0266164,-0.84677299,3.2520999,-0.24598614,february,22,6,weekend,
282,WECCbus157,1.028278,-0.8249324,3.081759,-0.25473691,february,23,6,weekend,
0,WECCbus54,0.9935159,-1.7575343999999997,2.8621619,0.57638068,february,0,5,weekday,
6,WECCbus54,1.0158498,-1.7269183000000001,2.3770035,-0.14186728,february,1,5,weekday,
12,WECCbus54,1.0161206,-1.7225552,2.3445331,-0.14322054,february,2,5,weekday,
18,WECCbus54,1.0162026,-1.7211900000000002,2.3351981,-0.14358596,february,3,5,weekday,
24,WECCbus54,1.0162378,-1.7206861,2.332337,-0.14368793,february,4,5,weekday,
30,WECCbus54,1.0160489,-1.7237436999999998,2.3573624,-0.14265477,february,5,5,weekday,
36,WECCbus54,1.015487,-1.732851,2.4264031000000004,-0.13963389,february,6,5,weekday,
42,WECCbus54,1.0148129000000001,-1.7440006000000001,2.5103965,-0.13553155,february,7,5,weekday,
48,WECCbus54,1.014924,-1.7421473000000003,2.5269890999999998,-0.13417935,february,8,5,weekday,
54,WECCbus54,1.0163071,-1.7206112,2.4376092999999996,-0.13764401,february,9,5,weekday,
60,WECCbus54,1.0172523999999998,-1.7040421000000001,2.3148079,-0.14266604,february,10,5,weekday,
66,WECCbus54,1.0174317,-1.7003032,2.2711952999999996,-0.14445178,february,11,5,weekday,
72,WECCbus54,1.0175155,-1.6982092,2.2550172,-0.14497654,february,12,5,weekday,
78,WECCbus54,1.0175049999999999,-1.6984675,2.2582952,-0.14485363,february,13,5,weekday,
84,WECCbus54,1.0175001000000001,-1.6984477999999998,2.2570681,-0.14491812,february,14,5,weekday,
90,WECCbus54,1.0173618,-1.7014141999999999,2.2858172999999997,-0.14384356,february,15,5,weekday,
96,WECCbus54,1.0169489,-1.7096624,2.3685113999999996,-0.14044428,february,16,5,weekday,
102,WECCbus54,1.0151337,-1.7388541000000002,2.5410879,-0.13300743,february,17,5,weekday,
108,WECCbus54,1.01481,-1.7473863,2.8036594,-0.11408983,february,18,5,weekday,
114,WECCbus54,1.0132755,-1.7696039000000001,2.8986834,-0.10771291,february,19,5,weekday,
120,WECCbus54,1.0112316,-1.7942084999999999,2.8967662,-0.10955165,february,20,5,weekday,
126,WECCbus54,1.0114318000000002,-1.7915452,2.8721273999999997,-0.11154000000000001,february,21,5,weekday,
132,WECCbus54,1.0123932,-1.7783876,2.771099,-0.11923029,february,22,5,weekday,
138,WECCbus54,1.0138008,-1.7584123999999999,2.6170177000000003,-0.12943076,february,23,5,weekday,
144,WECCbus54,1.0149217,-1.7415143,2.488736,-0.13660638,february,0,6,weekend,
150,WECCbus54,1.0156513,-1.7299929,2.4049162999999996,-0.14056626,february,1,6,weekend,
156,WECCbus54,1.0159255999999999,-1.7255316000000003,2.3729722,-0.14193808,february,2,6,weekend,
162,WECCbus54,1.0160374,-1.7238232,2.360266,-0.14247698,february,3,6,weekend,
168,WECCbus54,1.0160582,-1.7234918999999997,2.3572056,-0.14260951,february,4,6,weekend,
174,WECCbus54,1.0158668,-1.7266332999999998,2.3814182,-0.14159136,february,5,6,weekend,
180,WECCbus54,1.0152758,-1.7361179,2.4530499,-0.13832496,february,6,6,weekend,
186,WECCbus54,1.0145701999999999,-1.7477801,2.5398068,-0.13392225,february,7,6,weekend,
192,WECCbus54,1.0146916,-1.7454151000000002,2.5601211,-0.13219745,february,8,6,weekend,
198,WECCbus54,1.0162835,-1.7206137,2.4496216,-0.13673555,february,9,6,weekend,
204,WECCbus54,1.0172698,-1.7033807,2.324689,-0.14189264,february,10,6,weekend,
210,WECCbus54,1.0174663000000002,-1.6994772,2.2771442000000004,-0.14388631,february,11,6,weekend,
216,WECCbus54,1.0175606,-1.6973522,2.2586902,-0.14452658,february,12,6,weekend,
222,WECCbus54,1.0175471999999999,-1.697703,2.2628597000000004,-0.14436463,february,13,6,weekend,
228,WECCbus54,1.017567,-1.6971575,2.2575842999999995,-0.14454477,february,14,6,weekend,
234,WECCbus54,1.0174427,-1.7000115000000002,2.2833252999999996,-0.14361504,february,15,6,weekend,
240,WECCbus54,1.0170462,-1.7081026000000001,2.3673337,-0.14013446,february,16,6,weekend,
246,WECCbus54,1.0161457,-1.7248167,2.5559359,-0.13034704,february,17,6,weekend,
252,WECCbus54,1.0142620999999998,-1.7552143,2.8419387,-0.11142111,february,18,6,weekend,
258,WECCbus54,1.0115132,-1.7915573,2.9393197,-0.10540311,february,19,6,weekend,
264,WECCbus54,1.0106530999999999,-1.8015782,2.9501684,-0.10498483,february,20,6,weekend,
270,WECCbus54,1.0109054,-1.7983616000000002,2.9243232000000003,-0.10716264,february,21,6,weekend,
276,WECCbus54,1.0119354999999999,-1.7845388,2.8199226000000004,-0.11550514,february,22,6,weekend,
282,WECCbus54,1.0134139000000002,-1.7638333,2.6622546000000002,-0.12654601,february,23,6,weekend,
0,WECCbus57,0.99343964,-1.748537,2.6546991,0.53686136,february,0,5,weekday,
6,WECCbus57,1.0128053,-1.7195455000000002,2.1731759999999998,-0.18021827,february,1,5,weekday,
12,WECCbus57,1.0130514000000002,-1.7152798999999999,2.136302,-0.18190867,february,2,5,weekday,
18,WECCbus57,1.0131264000000002,-1.7139415,2.1242886000000003,-0.18245093,february,3,5,weekday,
24,WECCbus57,1.0131593,-1.7134436000000002,2.1179360000000003,-0.18275887,february,4,5,weekday,
30,WECCbus57,1.012989,-1.7164221000000002,2.1411666,-0.18174848,february,5,5,weekday,
36,WECCbus57,1.0124796,-1.7253179,2.2144767000000005,-0.17826484,february,6,5,weekday,
42,WECCbus57,1.0118707,-1.7362039,2.2973342999999997,-0.17404923,february,7,5,weekday,
...
